<?xml version="1.0"?>

<!DOCTYPE config SYSTEM "http://www.matsim.org/files/dtd/config_v2.dtd">

-<config>


-<module name="global">

<!--2291, 2164, 2686, 3263, 4289, 3976, 1094, 2739-->


<param name="randomSeed" value="3263"/>

<param name="numberOfThreads" value="4"/>

<!--for the remote desktop computer this can be set to 4 -->


</module>


-<module name="network">

<param name="inputNetworkFile" value="Network.xml"/>

</module>


-<module name="plans">

<param name="inputPlansFile" value="15.plans_reduced.xml"/>

</module>


-<module name="controler">

<param name="mobsim" value="qsim"/>

<param name="eventsFileFormat" value="xml"/>

<param name="routingAlgorithmType" value="Dijkstra"/>

<param name="snapshotFormat" value="otfvis"/>

<param name="writeSnapshotsInterval" value="1"/>

<param name="writeEventsInterval" value="1"/>

<param name="writePlansInterval" value="1"/>

<param name="outputDirectory" value="./output"/>

</module>


-<module name="qsim">

<param name="numberOfThreads" value="1"/>

<!--Only a single-threaded QSim allowed in taxi consistency checker -->


<param name="mainMode" value="car, taxi"/>

<!-- these are the modes affected by congestion, DO NOT ADD TAXI-crashes! -->


<param name="simStarttimeInterpretation" value="onlyUseStarttime"/>

<param name="endTime" value="29:00:00"/>

<param name="insertingWaitingVehiclesBeforeDrivingVehicles" value="true"/>

<param name="flowCapacityFactor" value="1"/>

<param name="storageCapacityFactor" value="1.0"/>

<param name="removeStuckVehicles" value="false"/>

<param name="stuckTime" value="600.0"/>

<param name="timeStepSize" value="00:00:10"/>

<param name="snapshotperiod" value="00:00:10"/>

<param name="snapshotStyle" value="queue"/>

</module>


-<module name="planscalcroute">

<param name="networkModes" value="car,taxi"/>


-<parameterset type="teleportedModeParameters">

<param name="beelineDistanceFactor" value="1.3"/>

<param name="mode" value="bike"/>

<param name="teleportedModeSpeed" value="4.166666666666667"/>

<!-- 15 km/h -->


</parameterset>


-<parameterset type="teleportedModeParameters">

<param name="beelineDistanceFactor" value="1.3"/>

<param name="mode" value="walk"/>

<param name="teleportedModeSpeed" value="1.38888888888889"/>

<!-- 5 km/h -->


</parameterset>


-<parameterset type="teleportedModeParameters">

<param name="beelineDistanceFactor" value="1.3"/>

<param name="mode" value="access_walk"/>

<param name="teleportedModeSpeed" value="1.38888888888889"/>

<!-- 5 km/h -->


</parameterset>


-<parameterset type="teleportedModeParameters">

<param name="beelineDistanceFactor" value="1.3"/>

<param name="mode" value="egress_walk"/>

<param name="teleportedModeSpeed" value="1.38888888888889"/>

<!-- 5 km/h; default: 0.8333333333333333 -->


</parameterset>


-<parameterset type="teleportedModeParameters">

<param name="beelineDistanceFactor" value="1.3"/>

<param name="mode" value="undefined"/>

<param name="teleportedModeSpeed" value="13.88888888888889"/>

<!-- 50 km/h -->


</parameterset>


-<parameterset type="teleportedModeParameters">

<param name="beelineDistanceFactor" value="1.3"/>

<param name="mode" value="ride"/>

<!-- Free-speed factor for a teleported mode. Travel time = teleportedModeFreespeedFactor* <freespeed car travel time>. Insert a line like this for every such mode.Please do not set teleportedModeFreespeedFactor as well as teleportedModeSpeedfor the same mode, but if you do, +teleportedModeFreespeedFactor wins overteleportedModeSpeed. -->


<param name="teleportedModeFreespeedFactor" value="1.0"/>

</parameterset>


-<parameterset type="teleportedModeParameters">

<param name="beelineDistanceFactor" value="1.3"/>

<param name="mode" value="pt"/>

<!-- Free-speed factor for a teleported mode. Travel time = teleportedModeFreespeedFactor* <freespeed car travel time>. Insert a line like this for every such mode.Please do not set teleportedModeFreespeedFactor as well as teleportedModeSpeedfor the same mode, but if you do, +teleportedModeFreespeedFactor wins overteleportedModeSpeed. -->


<param name="teleportedModeFreespeedFactor" value="1.0"/>

</parameterset>

</module>


-<module name="planCalcScore">


-<parameterset type="activityParams">

<param name="activityType" value="work"/>

<param name="typicalDuration" value="08:00:00"/>

<param name="priority" value="1.0"/>

</parameterset>


-<parameterset type="activityParams">

<param name="activityType" value="home"/>

<param name="priority" value="1.0"/>

<param name="typicalDuration" value="12:00:00"/>

</parameterset>


-<parameterset type="activityParams">

<param name="activityType" value="bringget"/>

<param name="priority" value="1.0"/>

<param name="typicalDuration" value="01:00:00"/>

</parameterset>


-<parameterset type="activityParams">

<param name="activityType" value="business"/>

<param name="priority" value="1.0"/>

<param name="typicalDuration" value="01:00:00"/>

</parameterset>


-<parameterset type="activityParams">

<param name="activityType" value="shoppingD"/>

<param name="priority" value="1.0"/>

<param name="typicalDuration" value="01:00:00"/>

</parameterset>


-<parameterset type="activityParams">

<param name="activityType" value="shoppingND"/>

<param name="priority" value="1.0"/>

<param name="typicalDuration" value="01:00:00"/>

</parameterset>


-<parameterset type="activityParams">

<param name="activityType" value="service"/>

<param name="priority" value="1.0"/>

<param name="typicalDuration" value="01:00:00"/>

</parameterset>


-<parameterset type="activityParams">

<param name="activityType" value="sozializing"/>

<param name="priority" value="1.0"/>

<param name="typicalDuration" value="01:00:00"/>

</parameterset>


-<parameterset type="activityParams">

<param name="activityType" value="leisure"/>

<param name="priority" value="1.0"/>

<param name="typicalDuration" value="01:00:00"/>

</parameterset>


-<parameterset type="activityParams">

<param name="activityType" value="touring"/>

<param name="priority" value="1.0"/>

<param name="typicalDuration" value="01:00:00"/>

</parameterset>

<!-- Utility of traveling -->


<param name="lateArrival" value="-0.01347"/>

<!-- 3x value for performing -->


<param name="performing" value="0.00451"/>

<!-- Amsterdam gemiddeld loon 33800 euro, voor 260 werkdagen: uurloon 16.25 euro/h -->


<param name="constantCar" value="0"/>

<param name="constantWalk" value="0.3"/>

<param name="constantOther" value="0"/>

<param name="constantBike" value="-1.0"/>

<param name="constantPt" value="-8.3"/>

<param name="traveling" value="-10.70"/>

<!-- based on fietsberaad CROW-->


<param name="travelingPt" value="-6.65"/>

<!-- based on fietsberaad CROW-->


<param name="travelingWalk" value="-6.65"/>

<param name="travelingBike" value="-10.70"/>

<!-- based on fietsberaad CROW-->


<param name="travelingOther" value="0"/>

<param name="earlyDeparture" value="0"/>

<!-- MATSIM standard value-->


<param name="waiting" value="0"/>

<!-- MATSIM standard value-->


<param name="marginalUtlOfDistanceWalk" value="0"/>

<!-- MATSIM standard value-->


<param name="utilityOfLineSwitch" value="0"/>

<!-- MATSIM standard value-->


<param name="waitingPt" value="0"/>

<!-- MATSIM standard value-->


<param name="marginalUtilityOfMoney" value="-1"/>

<!-- MATSIM standard value-->


<param name="monetaryDistanceRateCar" value="0.00030"/>

<!-- [unit_of_money/m] conversion of distance into money -->


<param name="monetaryDistanceRatePt" value="0.00025"/>

<!-- [unit_of_money/m] conversion of distance into money -->


<param name="fractionOfIterationsToStartScoreMSA" value="0.85"/>

<!-- TAXI -->



-<parameterset type="modeParams">

<param name="mode" value="taxi"/>

<param name="constant" value="0"/>

<param name="marginalUtilityOfDistance_util_m" value="0"/>

<!-- this is walking -->


<param name="marginalUtilityOfTraveling_util_hr" value="-10.70"/>

<param name="monetaryDistanceRate" value="0.00050"/>

<!-- like car -->


</parameterset>

</module>


-<module name="dvrp">

<param name="mode" value="taxi"/>

</module>


-<module name="otfvis">

<param name="coloringScheme" value="taxicab"/>

<param name="drawNonMovingItems" value="true"/>

</module>


-<module name="taxi">

<!--<param name="taxisFile" value="Taxis_2500_Depot10.xml" />-->


<param name="taxisFile" value="Taxis_2250on3000nOUTSIDE.xml"/>

<!-- Used in AStarEuclidean for shortest path search for occupied drives.Values above 1.0 (typically, 1.5 to 3.0) speed up the search, but at thecost of obtaining longer paths -->


<param name="AStarEuclideanOverdoFactor" value="2"/>

<param name="breakIfNotAllRequestsServed" value="false"/>

<!-- If true, the startLink is changed to last link in the current schedule, so the taxi starts the next day at the link where it stopped operating the day before. False by default. -->


<param name="changeStartLinkToLastLinkInSchedule" value="false"/>

<!-- If false, the drop-off location remains unknown to the optimizer and scheduler until the end of pickup -->


<param name="destinationKnown" value="false"/>

<param name="detailedStats" value="true"/>

<!-- If true, detailed hourly taxi stats are dumped after each iteration. -->


<param name="dropoffDuration" value="60.0"/>

<!-- Typically, 60 seconds -->


<!-- If true, vehicles are (GPS-like) monitored while moving. This helpsin getting more accurate estimates on the time of arrival. Online trackingis necessary for vehicle diversion. -->


<param name="onlineVehicleTracker" value="true"/>

<param name="pickupDuration" value="120.0"/>

<!-- Typically, 120 seconds -->


<!-- If true, time profiles of vehicle statuses (i.e. current task type) and the number of unplanned requests -->


<param name="timeProfiles" value="true"/>

<!-- If true, vehicles can be diverted during empty trips. Requires online tracking. -->


<param name="vehicleDiversion" value="true"/>


-<parameterset type="optimizer">

<param name="id" value="example"/>

<param name="type" value="RULE_BASED"/>

<!-- param of default optimizer -->


<param name="reoptimizationTimeStep" value="60"/>

<!-- param of rule based optimizer -->


<param name="goal" value="DEMAND_SUPPLY_EQUIL"/>

<param name="nearestRequestsLimit" value="99999"/>

<param name="nearestVehiclesLimit" value="99999"/>

<param name="cellSize" value="1500"/>

<!-- param of zonal optimizer -->


<param name="zonesShpFile" value="zzones.shp"/>

<param name="zonesXmlFile" value="zzones.xml"/>

<!-- expansionDistance called in ZoneFinderImpl, it allows to expand the area in which a zone is attributed to a point -->


<param name="expansionDistance" value="1.5"/>

</parameterset>

</module>

<!-- PARKING -->



-<module name="facilities">

<!-- The parkingsearch module uses the standard MATSim facilities as parking locations-->


<!--<param name="inputFacilitiesFile" value="parkingDepot_10.xml" /> -->


<param name="inputFacilitiesFile" value="parking2750nOUTSIDE.xml"/>

</module>

<!-- BEHAVIOUR -->



-<module name="strategy">

<param name="fractionOfIterationsToDisableInnovation" value="1"/>

<!-- turn off in calibration phase -->


<param name="maxAgentPlanMemorySize" value="3"/>

<!-- 0 means unlimited -->



-<parameterset type="strategysettings">

<param name="strategyName" value="SelectExpBeta"/>

<param name="weight" value="0.9"/>

<!-- <param name="subpopulation" value="null" /> -->


</parameterset>


-<parameterset type="strategysettings">

<param name="strategyName" value="SubtourModeChoice"/>

<param name="weight" value="0.00"/>

<!--<param name="subpopulation" value="null" /> -->


<!--valid parameters: [strategyName, disableAfterIteration, subpopulation, weight, executionPath]-->


</parameterset>


-<parameterset type="strategysettings">

<param name="strategyName" value="ChangeSingleTripMode"/>

<param name="weight" value="0.00"/>

<!--<param name="subpopulation" value="null" /> -->


<!--valid parameters: [strategyName, disableAfterIteration, subpopulation, weight, executionPath]-->


</parameterset>


-<parameterset type="strategysettings">

<param name="strategyName" value="ChangeTripMode"/>

<param name="weight" value="0.00"/>

<!--<param name="subpopulation" value="null" /> -->


</parameterset>


-<parameterset type="strategysettings">

<param name="strategyName" value="BestScore"/>

<param name="weight" value="0.0"/>

<!-- <param name="subpopulation" value="null" /> -->


</parameterset>


-<parameterset type="strategysettings">

<param name="strategyName" value="ReRoute"/>

<param name="weight" value="0.05"/>

<!-- <param name="subpopulation" value="null" /> -->


</parameterset>


-<parameterset type="strategysettings">

<param name="strategyName" value="TimeAllocationMutator"/>

<param name="weight" value="0.05"/>

<!-- <param name="subpopulation" value="null" /> -->


</parameterset>

</module>


-<module name="TimeAllocationMutator">

<param name="mutationRange" value="900.0"/>

</module>


-<module name="subtourModeChoice">

<param name="modes" value="car,bike,pt,walk,taxi"/>

<!-- defining available modes -->


<param name="chainBasedModes" value="car,bike"/>

<!-- defining chain-based modes -->


<param name="considerCarAvailability" value="false"/>

</module>


-<module name="changeMode">

<param name="modes" value="pt,walk,taxi"/>

<!-- defining available modes -->


<param name="ignoreCarAvailability" value="true"/>

</module>

<!-- Analysis -->



-<module name="travelTimeCalculator">

<param name="analyzedModes" value="car,bike,pt,walk,taxi"/>

<param name="separateModes" value="true"/>

<param name="travelTimeBinSize" value="900"/>

</module>


-<module name="linkStats">

<param name="averageLinkStatsOverIterations" value="5"/>

<param name="writeLinkStatsInterval" value="15"/>

</module>

</config>
